java/SFINA/configuration_files/experiment-LineRemovalRandomCase30/output/time_22/iteration_1/flow/links.txt
id,current,real_power_from,reactive_power_from,real_power_to,reactive_power_to,resistance,reactance,susceptance,rateA,rateB,rateC,ratio,angle,angmin,angmax
1,0.0,12.38692595237919,-5.572302124412509,-12.352922036550748,2.674313871897642,0.02,0.06,0.03,130.0,130.0,130.0,0.0,0.0,-360.0,360.0
2,0.0,2.1683553431986584,-0.9055405765092885,-2.1659999994601473,-1.0829999993854438,0.05,0.19,0.02,130.0,130.0,130.0,0.0,0.0,-360.0,360.0
3,0.0,-17.751174501699648,13.136084960310718,18.060134358216626,-14.235610953272445,0.06,0.17,0.02,65.0,65.0,65.0,0.0,0.0,-360.0,360.0
4,0.0,16.961990719759527,5.989583748781406,-16.928143018196582,-5.8541929425296235,0.01,0.04,0.0,130.0,130.0,130.0,0.0,0.0,-360.0,360.0
5,0.0,21.130420639705466,8.552644140910218,-20.8615467964586,-9.420093198387011,0.05,0.2,0.02,130.0,130.0,130.0,0.0,0.0,-360.0,360.0
6,0.0,-15.865619754807003,3.398548416465398,16.028258825832662,-4.914811007220988,0.06,0.18,0.02,65.0,65.0,65.0,0.0,0.0,-360.0,360.0
7,0.0,24.970666882367407,10.75940471110305,-24.89370862332712,-10.451571674941915,0.01,0.04,0.0,90.0,90.0,90.0,0.0,0.0,-360.0,360.0
8,0.0,20.861546796458633,9.599252640174994,-20.57700000000005,-9.837249999999978,0.05,0.12,0.01,70.0,70.0,70.0,0.0,0.0,-360.0,360.0
9,0.0,3.6329614195782884,2.085419493935517,-3.626554174549411,-2.986739282929174,0.03,0.08,0.01,130.0,130.0,130.0,0.0,0.0,-360.0,360.0
10,0.0,27.24170477279918,27.741819148077578,-27.074999984988235,-27.07499999683384,0.01,0.04,0.0,32.0,32.0,32.0,0.0,0.0,-360.0,360.0
11,0.0,-16.02825873341604,4.914811132002793,16.02825873341604,-4.327040958401099,0.0,0.21,0.0,65.0,65.0,65.0,0.0,0.0,-360.0,360.0
12,0.0,-0.6348354949902866,-2.3647833435980545,0.6348354949902866,2.4005763406646894,0.0,0.56,0.0,32.0,32.0,32.0,0.0,0.0,-360.0,360.0
13,0.0,0.0,0.0,0.0,0.0,0.0,0.21,0.0,65.0,65.0,65.0,0.0,0.0,-360.0,360.0
14,0.0,-16.028258741039235,4.327040958394122,16.028258741039238,-4.019161343377478,0.0,0.11,0.0,65.0,65.0,65.0,0.0,0.0,-360.0,360.0
15,0.0,-6.858999999999524,-1.4439999999998177,6.858999999999525,1.5996826677345457,0.0,0.26,0.0,65.0,65.0,65.0,0.0,0.0,-360.0,360.0
16,0.0,-37.00000000000005,-8.20213470954744,37.00000000000004,10.2662901071369,0.0,0.14,0.0,65.0,65.0,65.0,0.0,0.0,-360.0,360.0
17,0.0,-1.5371473279920156,-0.2264569620301987,1.540644201963097,0.23403352230087437,0.12,0.26,0.0,32.0,32.0,32.0,0.0,0.0,-360.0,360.0
18,0.0,-15.429852672007884,-8.14197570570406,15.687037622250694,8.61960489901213,0.07,0.13,0.0,32.0,32.0,32.0,0.0,0.0,-360.0,360.0
19,0.0,7.076734344916842,-0.2716367220612359,-7.030033603142797,0.3754161482257838,0.09,0.2,0.0,32.0,32.0,32.0,0.0,0.0,-360.0,360.0
20,0.0,-7.136144201963159,-1.6780335223009308,7.278020389965434,1.8070118750302708,0.22,0.2,0.0,16.0,16.0,16.0,0.0,0.0,-360.0,360.0
21,0.0,-3.499999999999934,-1.8000000000000362,3.513228458695339,1.8314175894016231,0.08,0.19,0.0,16.0,16.0,16.0,0.0,0.0,-360.0,360.0
22,0.0,2.8994851054724293,0.8352202109448663,-2.88799999999999,-0.8122499999999879,0.11,0.22,0.0,16.0,16.0,16.0,0.0,0.0,-360.0,360.0
23,0.0,11.807849598057492,4.333981129309407,-11.701842001108755,-4.104298002587135,0.06,0.13,0.0,16.0,16.0,16.0,0.0,0.0,-360.0,360.0
24,0.0,2.2018420011086954,0.7042980025869784,-2.199999999999966,-0.6999999999999419,0.03,0.07,0.0,32.0,32.0,32.0,0.0,0.0,-360.0,360.0
25,0.0,5.915586873348007,4.6247769164974315,-5.863221813294653,-4.502591776372941,0.09,0.21,0.0,32.0,32.0,32.0,0.0,0.0,-360.0,360.0
26,0.0,12.58111772934874,7.812455644477942,-12.513228458695119,-7.631417589401618,0.03,0.08,0.0,32.0,32.0,32.0,0.0,0.0,-360.0,360.0
27,0.0,-1.3706307126648978,-6.022776965524964,1.382305093891101,6.050017188386106,0.03,0.07,0.0,32.0,32.0,32.0,0.0,0.0,-360.0,360.0
28,0.0,-21.262758737895936,2.214161345607712,21.59066783462689,-1.5114989954699645,0.07,0.15,0.0,32.0,32.0,32.0,0.0,0.0,-360.0,360.0
29,0.0,-15.793749999999495,-10.108000000000047,15.829167119818004,10.178834239637075,0.01,0.02,0.0,32.0,32.0,32.0,0.0,0.0,-360.0,360.0
30,0.0,-33.26504311768848,-13.518086984987429,34.74359201767815,16.475184784966764,0.1,0.2,0.0,16.0,16.0,16.0,0.0,0.0,-360.0,360.0
31,0.0,-15.829834947990614,20.61678772721824,16.64059768079438,-19.4006436280126,0.12,0.18,0.0,16.0,16.0,16.0,0.0,0.0,-360.0,360.0
32,0.0,16.068299775994834,-3.3691688991368847,-15.717895752204045,4.096931102394679,0.13,0.27,0.0,16.0,16.0,16.0,0.0,0.0,-360.0,360.0
33,0.0,-24.492347680794335,13.392570953721188,26.02352748295796,-10.733153402594892,0.19,0.33,0.0,16.0,16.0,16.0,0.0,0.0,-360.0,360.0
34,0.0,3.366978811329428,2.2488077932207635,-3.3249999999999833,-2.1850000000000063,0.25,0.38,0.0,16.0,16.0,16.0,0.0,0.0,-360.0,360.0
35,0.0,-26.023527482957938,10.733153402594986,26.910000000000032,-9.040796779150982,0.11,0.21,0.0,16.0,16.0,16.0,0.0,0.0,-360.0,360.0
36,0.0,0.0,0.0,0.0,0.0,0.0,0.4,0.0,65.0,65.0,65.0,0.0,0.0,-360.0,360.0
37,0.0,13.791981562427088,4.300619021350164,-13.332810587779809,-3.424019887932628,0.22,0.42,0.0,16.0,16.0,16.0,0.0,0.0,-360.0,360.0
38,0.0,7.122394950487271,1.6745629326654834,-6.951090403779483,-1.3533669075883799,0.32,0.6,0.0,16.0,16.0,16.0,0.0,0.0,-360.0,360.0
39,0.0,10.932810391600777,2.524020078147906,-10.599999676446798,-1.8999999872341946,0.24,0.45,0.0,16.0,16.0,16.0,0.0,0.0,-360.0,360.0
40,0.0,-6.9187799432440755,-5.975361255614644,6.966936782194436,4.27615993344999,0.06,0.2,0.02,32.0,32.0,32.0,0.0,0.0,-360.0,360.0
41,0.0,-17.452898395314495,-6.400891572536463,17.525615444131827,5.6773073574969555,0.02,0.06,0.01,32.0,32.0,32.0,0.0,0.0,-360.0,360.0
